
**** 04/25/20 06:25:10 ********* PSpice 9.2 (Mar 2000) ******** ID# 0 ********

 ** Profile: "SCHEMATIC1-DEL_recent"  [ C:\Program Files\Orcad\Files\del_recent-SCHEMATIC1-DEL_recent.sim ] 


 ****     CIRCUIT DESCRIPTION


******************************************************************************




** Creating circuit file "del_recent-SCHEMATIC1-DEL_recent.sim.cir" 
** WARNING: THIS AUTOMATICALLY GENERATED FILE MAY BE OVERWRITTEN BY SUBSEQUENT SIMULATIONS

*Libraries: 
* Local Libraries :
* From [PSPICE NETLIST] section of C:\Program Files\Orcad\PSpice\PSpice.ini file:
.lib "nom.lib" 

*Analysis directives: 
.PROBE V(*) I(*) W(*) D(*) NOISE(*) 
.INC ".\del_recent-SCHEMATIC1.net" 



**** INCLUDING del_recent-SCHEMATIC1.net ****
* source DEL_RECENT
R_R3         N00579 N00834  1k  
R_R4         N00804 N00864  1k  
V_V2         N00579 N00804 20Vdc
C_C2         N00864 N00834  1n  

**** RESUMING del_recent-SCHEMATIC1-DEL_recent.sim.cir ****
.END

ERROR -- Node N00579 is floating
ERROR -- Node N00834 is floating
ERROR -- Node N00804 is floating
ERROR -- Node N00864 is floating