
**** 12/02/19 21:42:00 ********* PSpice 9.2 (Mar 2000) ******** ID# 0 ********

 ** Profile: "SCHEMATIC1-knsfw"  [ C:\Program Files\Orcad\Files\g(s) -schematic1-knsfw.sim ] 


 ****     CIRCUIT DESCRIPTION


******************************************************************************




** Creating circuit file "g(s) -schematic1-knsfw.sim.cir" 
** WARNING: THIS AUTOMATICALLY GENERATED FILE MAY BE OVERWRITTEN BY SUBSEQUENT SIMULATIONS

*Libraries: 
* Local Libraries :
* From [PSPICE NETLIST] section of C:\Program Files\Orcad\PSpice\PSpice.ini file:
.lib "nom.lib" 

*Analysis directives: 
.TRAN  0 1000s 0 SKIPBP 
.PROBE V(*) I(*) W(*) D(*) NOISE(*) 
.INC ".\g(s) -SCHEMATIC1.net" 



**** INCLUDING "g(s) -SCHEMATIC1.net" ****
* source G(S) 
R_R2         N00020 N00014  100k  
C_C1         N00020 N00040  10u  
C_C2         N00014 0  25u  
V_V2         N00576 0 15
R_R1         N00113 N00020  100k  
V_V3         N01648 0 -15
X_U2A         N00014 N00040 N00576 N01648 N00040 LM324
V_V1         N00113 0 1Vdc

**** RESUMING "g(s) -schematic1-knsfw.sim.cir" ****
.END

**** 12/02/19 21:42:00 ********* PSpice 9.2 (Mar 2000) ******** ID# 0 ********

 ** Profile: "SCHEMATIC1-knsfw"  [ C:\Program Files\Orcad\Files\g(s) -schematic1-knsfw.sim ] 


 ****     Diode MODEL PARAMETERS


******************************************************************************




               X_U2A.dx        X_U2A.dy        
          IS  800.000000E-18  800.000000E-18 
          RS    1               1.000000E-03 
         CJO                   10.000000E-12 


**** 12/02/19 21:42:00 ********* PSpice 9.2 (Mar 2000) ******** ID# 0 ********

 ** Profile: "SCHEMATIC1-knsfw"  [ C:\Program Files\Orcad\Files\g(s) -schematic1-knsfw.sim ] 


 ****     BJT MODEL PARAMETERS


******************************************************************************




               X_U2A.qx        
               PNP             
          IS  800.000000E-18 
          BF  166.7          
          NF    1            
          BR    1            
          NR    1            
          CN    2.2          
           D     .52         


**** 12/02/19 21:42:00 ********* PSpice 9.2 (Mar 2000) ******** ID# 0 ********

 ** Profile: "SCHEMATIC1-knsfw"  [ C:\Program Files\Orcad\Files\g(s) -schematic1-knsfw.sim ] 


 ****     Current Controlled Switch MODEL PARAMETERS


******************************************************************************




               X_U2A.sw2       X_U2A.sw1       X_U2A.sw3       X_U2A.sw4       
         RON    1               1               1               1            
        ROFF   10.000000E+06   10.000000E+06   10.000000E+06   10.000000E+06 
         ION    0              -1.000000E-06   -1.000000E-06    0            
        IOFF   -1.000000E-06    0               0              -1.000000E-06 



          JOB CONCLUDED

          TOTAL JOB TIME             .06
