
**** 12/02/19 23:50:33 ********* PSpice 9.2 (Mar 2000) ******** ID# 0 ********

 ** Profile: "SCHEMATIC1-stepg"  [ C:\Program Files\Orcad\Files\g(s)_step-SCHEMATIC1-stepg.sim ] 


 ****     CIRCUIT DESCRIPTION


******************************************************************************




** Creating circuit file "g(s)_step-SCHEMATIC1-stepg.sim.cir" 
** WARNING: THIS AUTOMATICALLY GENERATED FILE MAY BE OVERWRITTEN BY SUBSEQUENT SIMULATIONS

*Libraries: 
* Local Libraries :
* From [PSPICE NETLIST] section of C:\Program Files\Orcad\PSpice\PSpice.ini file:
.lib "nom.lib" 

*Analysis directives: 
.TRAN  0 10 0 SKIPBP 
.PROBE V(*) I(*) W(*) D(*) NOISE(*) 
.INC ".\g(s)_step-SCHEMATIC1.net" 



**** INCLUDING g(s)_step-SCHEMATIC1.net ****
* source G(S)_STEP
C_C1         N03500 N03496  .1667m  
V_V4         N03512 0 1Vdc
V_V2         N03492 0 15
C_C2         N03656 0  10.41u  
V_V3         N03688 0 -15
R_R1         N03512 N03500  1k  
X_U2A         N03656 N03496 N03492 N03688 N03496 LM324
R_R2         N03500 N03656  1k  

**** RESUMING g(s)_step-SCHEMATIC1-stepg.sim.cir ****
.END

**** 12/02/19 23:50:33 ********* PSpice 9.2 (Mar 2000) ******** ID# 0 ********

 ** Profile: "SCHEMATIC1-stepg"  [ C:\Program Files\Orcad\Files\g(s)_step-SCHEMATIC1-stepg.sim ] 


 ****     Diode MODEL PARAMETERS


******************************************************************************




               X_U2A.dx        X_U2A.dy        
          IS  800.000000E-18  800.000000E-18 
          RS    1               1.000000E-03 
         CJO                   10.000000E-12 


**** 12/02/19 23:50:33 ********* PSpice 9.2 (Mar 2000) ******** ID# 0 ********

 ** Profile: "SCHEMATIC1-stepg"  [ C:\Program Files\Orcad\Files\g(s)_step-SCHEMATIC1-stepg.sim ] 


 ****     BJT MODEL PARAMETERS


******************************************************************************




               X_U2A.qx        
               PNP             
          IS  800.000000E-18 
          BF  166.7          
          NF    1            
          BR    1            
          NR    1            
          CN    2.2          
           D     .52         


**** 12/02/19 23:50:33 ********* PSpice 9.2 (Mar 2000) ******** ID# 0 ********

 ** Profile: "SCHEMATIC1-stepg"  [ C:\Program Files\Orcad\Files\g(s)_step-SCHEMATIC1-stepg.sim ] 


 ****     Current Controlled Switch MODEL PARAMETERS


******************************************************************************




               X_U2A.sw2       X_U2A.sw1       X_U2A.sw3       X_U2A.sw4       
         RON    1               1               1               1            
        ROFF   10.000000E+06   10.000000E+06   10.000000E+06   10.000000E+06 
         ION    0              -1.000000E-06   -1.000000E-06    0            
        IOFF   -1.000000E-06    0               0              -1.000000E-06 



          JOB CONCLUDED

          TOTAL JOB TIME             .05
