
**** 12/02/19 23:52:43 ********* PSpice 9.2 (Mar 2000) ******** ID# 0 ********

 ** Profile: "SCHEMATIC1-stepimp"  [ C:\Program Files\Orcad\Files\g(s)_impulse-SCHEMATIC1-stepimp.sim ] 


 ****     CIRCUIT DESCRIPTION


******************************************************************************




** Creating circuit file "g(s)_impulse-SCHEMATIC1-stepimp.sim.cir" 
** WARNING: THIS AUTOMATICALLY GENERATED FILE MAY BE OVERWRITTEN BY SUBSEQUENT SIMULATIONS

*Libraries: 
* Local Libraries :
* From [PSPICE NETLIST] section of C:\Program Files\Orcad\PSpice\PSpice.ini file:
.lib "nom.lib" 

*Analysis directives: 
.TRAN  0 10s 0 SKIPBP 
.PROBE V(*) I(*) W(*) D(*) NOISE(*) 
.INC ".\g(s)_impulse-SCHEMATIC1.net" 



**** INCLUDING g(s)_impulse-SCHEMATIC1.net ****
* source G(S)_IMPULSE
V_V1         N03512 0  
+PULSE 0 100 0 1p 1p .01 30
C_C1         N03500 N03496  .1667m  
V_V2         N03492 0 15
C_C2         N03656 0  10.41u  
V_V3         N03688 0 -15
R_R1         N03512 N03500  1k  
X_U2A         N03656 N03496 N03492 N03688 N03496 LM324
R_R2         N03500 N03656  1k  

**** RESUMING g(s)_impulse-SCHEMATIC1-stepimp.sim.cir ****
.END

**** 12/02/19 23:52:43 ********* PSpice 9.2 (Mar 2000) ******** ID# 0 ********

 ** Profile: "SCHEMATIC1-stepimp"  [ C:\Program Files\Orcad\Files\g(s)_impulse-SCHEMATIC1-stepimp.sim ] 


 ****     Diode MODEL PARAMETERS


******************************************************************************




               X_U2A.dx        X_U2A.dy        
          IS  800.000000E-18  800.000000E-18 
          RS    1               1.000000E-03 
         CJO                   10.000000E-12 


**** 12/02/19 23:52:43 ********* PSpice 9.2 (Mar 2000) ******** ID# 0 ********

 ** Profile: "SCHEMATIC1-stepimp"  [ C:\Program Files\Orcad\Files\g(s)_impulse-SCHEMATIC1-stepimp.sim ] 


 ****     BJT MODEL PARAMETERS


******************************************************************************




               X_U2A.qx        
               PNP             
          IS  800.000000E-18 
          BF  166.7          
          NF    1            
          BR    1            
          NR    1            
          CN    2.2          
           D     .52         


**** 12/02/19 23:52:43 ********* PSpice 9.2 (Mar 2000) ******** ID# 0 ********

 ** Profile: "SCHEMATIC1-stepimp"  [ C:\Program Files\Orcad\Files\g(s)_impulse-SCHEMATIC1-stepimp.sim ] 


 ****     Current Controlled Switch MODEL PARAMETERS


******************************************************************************




               X_U2A.sw2       X_U2A.sw1       X_U2A.sw3       X_U2A.sw4       
         RON    1               1               1               1            
        ROFF   10.000000E+06   10.000000E+06   10.000000E+06   10.000000E+06 
         ION    0              -1.000000E-06   -1.000000E-06    0            
        IOFF   -1.000000E-06    0               0              -1.000000E-06 


ERROR -- Time step =  551.6E-15 is too small in Transient Analysis at
Time =  20.55E-12.  Minimum allowable step size =  10.00E-12.
         The device which is changing too fast is X_U2A.dc.



  Last node voltages tried were:

 NODE   VOLTAGE     NODE   VOLTAGE     NODE   VOLTAGE     NODE   VOLTAGE


(N03492)   15.0000 (N03496)     .3378 (N03500)     .3378 (N03512)  100.0000     

(N03656) 672.6E-12 (N03688)  -15.0000 (X_U2A.6)    -.3985                       

(X_U2A.7)    -.3985                   (X_U2A.8)    -.3985                       

(X_U2A.9)    0.0000                   (X_U2A.a)     .0147                       

(X_U2A.b)  -14.9850                   (X_U2A.10)     .6395                      

(X_U2A.11)  -14.9600                  (X_U2A.12)  -14.9600                      

(X_U2A.13)     .6395                  (X_U2A.14)     .6117                      

(X_U2A.53)   13.5000                  (X_U2A.54)  -14.1780                      

(X_U2A.90)  -14.7270                  (X_U2A.91)   40.0000                      

(X_U2A.92)  -40.0000                  (X_U2A.99)    0.0000                  


 **** Runtime Parameters
                              
      ABSTOL =      1.0000E-09
        GMIN =      1.0000E-12
        ITL1 =      1.5000E+02
        ITL2 =      2.0000E+01
        ITL4 =      1.0000E+02
      RELTOL =      1.0000E-02
      RUNFOR =      0.0000E+00
        TMAX =      0.0000E+00
       TSTOP =      1.0000E+01
       VNTOL =      1.0000E-03
              
               

ERROR -- Time step =  5.516E-12 is too small in Transient Analysis at
Time =  25.52E-12.  Minimum allowable step size =  10.00E-12.
         The device which is changing too fast is X_U2A.dc.



  Last node voltages tried were:

 NODE   VOLTAGE     NODE   VOLTAGE     NODE   VOLTAGE     NODE   VOLTAGE


(N03492)   15.0000 (N03496)     .3378 (N03500)     .3378 (N03512)  100.0000     

(N03656) 672.6E-12 (N03688)  -15.0000 (X_U2A.6)    -.3985                       

(X_U2A.7)    -.3985                   (X_U2A.8)    -.3985                       

(X_U2A.9)    0.0000                   (X_U2A.a)     .0147                       

(X_U2A.b)  -14.9850                   (X_U2A.10)     .6395                      

(X_U2A.11)  -14.9600                  (X_U2A.12)  -14.9600                      

(X_U2A.13)     .6395                  (X_U2A.14)     .6118                      

(X_U2A.53)   13.5000                  (X_U2A.54)  -14.1780                      

(X_U2A.90)  -14.7270                  (X_U2A.91)   40.0000                      

(X_U2A.92)  -40.0000                  (X_U2A.99)    0.0000                  


 **** Runtime Parameters
                              
      ABSTOL =      1.0000E-09
        GMIN =      1.0000E-12
        ITL1 =      1.5000E+02
        ITL2 =      2.0000E+01
        ITL4 =      1.0000E+02
      RELTOL =      1.0000E-02
      RUNFOR =      0.0000E+00
        TMAX =      0.0000E+00
       TSTOP =      1.0000E+01
       VNTOL =      1.0000E-03
              
               

ERROR -- Time step =  5.516E-12 is too small in Transient Analysis at
Time =  25.52E-12.  Minimum allowable step size =  10.00E-12.
         The device which is changing too fast is X_U2A.dc.



  Last node voltages tried were:

 NODE   VOLTAGE     NODE   VOLTAGE     NODE   VOLTAGE     NODE   VOLTAGE


(N03492)   15.0000 (N03496)     .3378 (N03500)     .3378 (N03512)  100.0000     

(N03656) 672.6E-12 (N03688)  -15.0000 (X_U2A.6)    -.3985                       

(X_U2A.7)    -.3985                   (X_U2A.8)    -.3985                       

(X_U2A.9)    0.0000                   (X_U2A.a)     .0147                       

(X_U2A.b)  -14.9850                   (X_U2A.10)     .6395                      

(X_U2A.11)  -14.9600                  (X_U2A.12)  -14.9600                      

(X_U2A.13)     .6395                  (X_U2A.14)     .6118                      

(X_U2A.53)   13.5000                  (X_U2A.54)  -14.1780                      

(X_U2A.90)  -14.7270                  (X_U2A.91)   40.0000                      

(X_U2A.92)  -40.0000                  (X_U2A.99)    0.0000                  


 **** Runtime Parameters
                              
      ABSTOL =      1.0000E-09
        GMIN =      1.0000E-12
        ITL1 =      1.5000E+02
        ITL2 =      2.0000E+01
        ITL4 =      1.0000E+02
      RELTOL =      1.0000E-02
      RUNFOR =      0.0000E+00
        TMAX =      0.0000E+00
       TSTOP =      1.0000E+01
       VNTOL =      1.0000E-03
              
               

ERROR -- Time step =  5.516E-12 is too small in Transient Analysis at
Time =  25.52E-12.  Minimum allowable step size =  10.00E-12.
         The device which is changing too fast is X_U2A.dc.



  Last node voltages tried were:

 NODE   VOLTAGE     NODE   VOLTAGE     NODE   VOLTAGE     NODE   VOLTAGE


(N03492)   15.0000 (N03496)     .3378 (N03500)     .3378 (N03512)  100.0000     

(N03656) 672.6E-12 (N03688)  -15.0000 (X_U2A.6)    -.3985                       

(X_U2A.7)    -.3985                   (X_U2A.8)    -.3985                       

(X_U2A.9)    0.0000                   (X_U2A.a)     .0147                       

(X_U2A.b)  -14.9850                   (X_U2A.10)     .6395                      

(X_U2A.11)  -14.9600                  (X_U2A.12)  -14.9600                      

(X_U2A.13)     .6395                  (X_U2A.14)     .6118                      

(X_U2A.53)   13.5000                  (X_U2A.54)  -14.1780                      

(X_U2A.90)  -14.7270                  (X_U2A.91)   40.0000                      

(X_U2A.92)  -40.0000                  (X_U2A.99)    0.0000                  


 **** Runtime Parameters
                              
      ABSTOL =      1.0000E-09
        GMIN =      1.0000E-12
        ITL1 =      1.5000E+02
        ITL2 =      2.0000E+01
        ITL4 =      1.0000E+02
      RELTOL =      1.0000E-02
      RUNFOR =      0.0000E+00
        TMAX =      0.0000E+00
       TSTOP =      1.0000E+01
       VNTOL =      1.0000E-03
              
               

ERROR -- Time step =  5.516E-12 is too small in Transient Analysis at
Time =  25.52E-12.  Minimum allowable step size =  10.00E-12.
         The device which is changing too fast is X_U2A.dc.



  Last node voltages tried were:

 NODE   VOLTAGE     NODE   VOLTAGE     NODE   VOLTAGE     NODE   VOLTAGE


(N03492)   15.0000 (N03496)     .3378 (N03500)     .3378 (N03512)  100.0000     

(N03656) 672.6E-12 (N03688)  -15.0000 (X_U2A.6)    -.3985                       

(X_U2A.7)    -.3985                   (X_U2A.8)    -.3985                       

(X_U2A.9)    0.0000                   (X_U2A.a)     .0147                       

(X_U2A.b)  -14.9850                   (X_U2A.10)     .6395                      

(X_U2A.11)  -14.9600                  (X_U2A.12)  -14.9600                      

(X_U2A.13)     .6395                  (X_U2A.14)     .6118                      

(X_U2A.53)   13.5000                  (X_U2A.54)  -14.1780                      

(X_U2A.90)  -14.7270                  (X_U2A.91)   40.0000                      

(X_U2A.92)  -40.0000                  (X_U2A.99)    0.0000                  

