
**** 12/09/19 13:16:13 ********* PSpice 9.2 (Mar 2000) ******** ID# 0 ********

 ** Profile: "SCHEMATIC1-design1"  [ C:\Program Files\Orcad\Files\lag_designs-SCHEMATIC1-design1.sim ] 


 ****     CIRCUIT DESCRIPTION


******************************************************************************




** Creating circuit file "lag_designs-SCHEMATIC1-design1.sim.cir" 
** WARNING: THIS AUTOMATICALLY GENERATED FILE MAY BE OVERWRITTEN BY SUBSEQUENT SIMULATIONS

*Libraries: 
* Local Libraries :
* From [PSPICE NETLIST] section of C:\Program Files\Orcad\PSpice\PSpice.ini file:
.lib "nom.lib" 

*Analysis directives: 
.TRAN  0 1 0 SKIPBP 
.PROBE V(*) I(*) W(*) D(*) NOISE(*) 
.INC ".\lag_designs-SCHEMATIC1.net" 



**** INCLUDING lag_designs-SCHEMATIC1.net ****
* source LAG_DESIGNS
V_V12         N516303 0 15
V_V43         N870110 0 -15
X_U2A         N40893 N40209 N40695 N405034 N40209 LM324
C_C2         N40893 0  10.41u  
X_U7A         0 N87497 N869740 N870110 N87592 LM324
V_V3         N402970 0 -15
R_R2         N41145 N40987  1k  
X_inv_A         0 N51858 N516303 N516304 N51916 LM324
V_V15         N516304 0 -15
R_R1         N40209 N41145  1k  
R_R63         N40987 N87497  1k  
R_R9         N51916 N40393  1k  
R_R10         N40393 N40893  1k  
R_R4         0 N40217  1k  
V_Vin         N52918 0 1Vdc
R_R3         N52918 N40217  1k  
R_R64         0 N87497  1k  
C_C1         N40393 N40209  .1667m  
R_R11         N87592 N51858  1k  
R_R65         N87497 N87592  1k  
X_U3A         N40217 N41145 N40791 N402970 N40987 LM324
V_V2         N40791 0 15
R_R13         N51858 N51916  1k  
V_V42         N869740 0 15
V_V13         N405034 0 -15
V_V14         N40695 0 15

**** RESUMING lag_designs-SCHEMATIC1-design1.sim.cir ****
.END

**** 12/09/19 13:16:13 ********* PSpice 9.2 (Mar 2000) ******** ID# 0 ********

 ** Profile: "SCHEMATIC1-design1"  [ C:\Program Files\Orcad\Files\lag_designs-SCHEMATIC1-design1.sim ] 


 ****     Diode MODEL PARAMETERS


******************************************************************************




               X_U2A.dx        X_U2A.dy        X_U7A.dx        X_U7A.dy        
          IS  800.000000E-18  800.000000E-18  800.000000E-18  800.000000E-18 
          RS    1               1.000000E-03    1               1.000000E-03 
         CJO                   10.000000E-12                   10.000000E-12 


               X_inv_A.dx      X_inv_A.dy      X_U3A.dx        X_U3A.dy        
          IS  800.000000E-18  800.000000E-18  800.000000E-18  800.000000E-18 
          RS    1               1.000000E-03    1               1.000000E-03 
         CJO                   10.000000E-12                   10.000000E-12 


**** 12/09/19 13:16:13 ********* PSpice 9.2 (Mar 2000) ******** ID# 0 ********

 ** Profile: "SCHEMATIC1-design1"  [ C:\Program Files\Orcad\Files\lag_designs-SCHEMATIC1-design1.sim ] 


 ****     BJT MODEL PARAMETERS


******************************************************************************




               X_U2A.qx        X_U7A.qx        X_inv_A.qx      X_U3A.qx        
               PNP             PNP             PNP             PNP             
          IS  800.000000E-18  800.000000E-18  800.000000E-18  800.000000E-18 
          BF  166.7           166.7           166.7           166.7          
          NF    1               1               1               1            
          BR    1               1               1               1            
          NR    1               1               1               1            
          CN    2.2             2.2             2.2             2.2          
           D     .52             .52             .52             .52         


**** 12/09/19 13:16:13 ********* PSpice 9.2 (Mar 2000) ******** ID# 0 ********

 ** Profile: "SCHEMATIC1-design1"  [ C:\Program Files\Orcad\Files\lag_designs-SCHEMATIC1-design1.sim ] 


 ****     Current Controlled Switch MODEL PARAMETERS


******************************************************************************




               X_U2A.sw2       X_U2A.sw1       X_U2A.sw3       X_U2A.sw4       
         RON    1               1               1               1            
        ROFF   10.000000E+06   10.000000E+06   10.000000E+06   10.000000E+06 
         ION    0              -1.000000E-06   -1.000000E-06    0            
        IOFF   -1.000000E-06    0               0              -1.000000E-06 


               X_U7A.sw2       X_U7A.sw1       X_U7A.sw3       X_U7A.sw4       
         RON    1               1               1               1            
        ROFF   10.000000E+06   10.000000E+06   10.000000E+06   10.000000E+06 
         ION    0              -1.000000E-06   -1.000000E-06    0            
        IOFF   -1.000000E-06    0               0              -1.000000E-06 


               X_inv_A.sw2     X_inv_A.sw1     X_inv_A.sw3     X_inv_A.sw4     
         RON    1               1               1               1            
        ROFF   10.000000E+06   10.000000E+06   10.000000E+06   10.000000E+06 
         ION    0              -1.000000E-06   -1.000000E-06    0            
        IOFF   -1.000000E-06    0               0              -1.000000E-06 


               X_U3A.sw2       X_U3A.sw1       X_U3A.sw3       X_U3A.sw4       
         RON    1               1               1               1            
        ROFF   10.000000E+06   10.000000E+06   10.000000E+06   10.000000E+06 
         ION    0              -1.000000E-06   -1.000000E-06    0            
        IOFF   -1.000000E-06    0               0              -1.000000E-06 



          JOB CONCLUDED

          TOTAL JOB TIME             .33
