
**** 12/09/19 13:06:42 ********* PSpice 9.2 (Mar 2000) ******** ID# 0 ********

 ** Profile: "SCHEMATIC1-parab_tfPid"  [ C:\Program Files\Orcad\Files\tf_pid_parab-SCHEMATIC1-parab_tfPid.sim ] 


 ****     CIRCUIT DESCRIPTION


******************************************************************************




** Creating circuit file "tf_pid_parab-SCHEMATIC1-parab_tfPid.sim.cir" 
** WARNING: THIS AUTOMATICALLY GENERATED FILE MAY BE OVERWRITTEN BY SUBSEQUENT SIMULATIONS

*Libraries: 
* Local Libraries :
* From [PSPICE NETLIST] section of C:\Program Files\Orcad\PSpice\PSpice.ini file:
.lib "nom.lib" 

*Analysis directives: 
.TRAN  0 250 0 SKIPBP 
.PROBE V(*) I(*) W(*) D(*) NOISE(*) 
.INC ".\tf_pid_parab-SCHEMATIC1.net" 



**** INCLUDING tf_pid_parab-SCHEMATIC1.net ****
* source TF_PID_PARAB
X_PropA         0 N06272 N08145 N31051 N06285 LM324
R_R12         N419351 N41779  1k  
X_intA         0 N06372 N14067 N06797 N06466 LM324
V_V5         N08145 0 15
X_diffA         0 N06703 N06833 N06825 N06713 LM324
R_R10         N09836 N00016  1k  
C_C1         N09836 N00040  .1667m  
C_C2         N00016 0  10.41u  
V_V12         N516303 0 15
V_V2         N07970 0 15
R_R14         0 N41775  1k  
V_Vin         N419351 0  
+PULSE 0 250 0 10 10 1 30
V_V4         N31051 0 -15
V_V7         N14067 0 15
V_V9         N06833 0 15
X_U7A         0 N06879 N065443 N06829 N07469 LM324
V_V11         N065443 0 15
V_V6         N06797 0 -15
V_V8         N06825 0 -15
V_V10         N06829 0 -15
X_inv_A         0 N51858 N516303 N516304 N51916 LM324
V_V15         N516304 0 -15
V_V14         N00576 0 15
R_R6         N06466 N06879  1k  
C_C3         N41779 N41775  500u  
C_Ci         N06372 N06466  26.85u  
R_R2         N02867 N02862  1k  
R_R11         N41775 N51858  1k  
X_int_C_A         0 N41779 N418433 N418434 N41775 LM324
R_R9         N07469 N09836  1k  
V_V16         N418434 0 -15
C_Cd         N02862 N06703  32.3u  
V_V13         N006784 0 -15
X_U2A         N00016 N00040 N00576 N006784 N00040 LM324
R_R13         N51858 N51916  1k  
R_R1         N00040 N02867  1k  
R_R3         N51916 N02884  1k  
V_V17         N418433 0 15
R_R4         0 N02884  1k  
X_U3A         N02884 N02867 N07970 N028554 N02862 LM324
R_Rp1         N02862 N06272  1k  
R_Rp2         N06272 N06285  1.862k  
R_Ri         N02862 N06372  1k  
R_Rd         N06703 N06713  1k  
R_R5         N06285 N06879  1k  
V_V3         N028554 0 -15
R_R7         N06713 N06879  1k  
R_R8         N06879 N07469  1k  

**** RESUMING tf_pid_parab-SCHEMATIC1-parab_tfPid.sim.cir ****
.END

**** 12/09/19 13:06:42 ********* PSpice 9.2 (Mar 2000) ******** ID# 0 ********

 ** Profile: "SCHEMATIC1-parab_tfPid"  [ C:\Program Files\Orcad\Files\tf_pid_parab-SCHEMATIC1-parab_tfPid.sim ] 


 ****     Diode MODEL PARAMETERS


******************************************************************************




               X_PropA.dx      X_PropA.dy      X_intA.dx       X_intA.dy       
          IS  800.000000E-18  800.000000E-18  800.000000E-18  800.000000E-18 
          RS    1               1.000000E-03    1               1.000000E-03 
         CJO                   10.000000E-12                   10.000000E-12 


               X_diffA.dx      X_diffA.dy      X_U7A.dx        X_U7A.dy        
          IS  800.000000E-18  800.000000E-18  800.000000E-18  800.000000E-18 
          RS    1               1.000000E-03    1               1.000000E-03 
         CJO                   10.000000E-12                   10.000000E-12 


               X_inv_A.dx      X_inv_A.dy      X_int_C_A.dx    X_int_C_A.dy    
          IS  800.000000E-18  800.000000E-18  800.000000E-18  800.000000E-18 
          RS    1               1.000000E-03    1               1.000000E-03 
         CJO                   10.000000E-12                   10.000000E-12 


               X_U2A.dx        X_U2A.dy        X_U3A.dx        X_U3A.dy        
          IS  800.000000E-18  800.000000E-18  800.000000E-18  800.000000E-18 
          RS    1               1.000000E-03    1               1.000000E-03 
         CJO                   10.000000E-12                   10.000000E-12 


**** 12/09/19 13:06:42 ********* PSpice 9.2 (Mar 2000) ******** ID# 0 ********

 ** Profile: "SCHEMATIC1-parab_tfPid"  [ C:\Program Files\Orcad\Files\tf_pid_parab-SCHEMATIC1-parab_tfPid.sim ] 


 ****     BJT MODEL PARAMETERS


******************************************************************************




               X_PropA.qx      X_intA.qx       X_diffA.qx      X_U7A.qx        
               PNP             PNP             PNP             PNP             
          IS  800.000000E-18  800.000000E-18  800.000000E-18  800.000000E-18 
          BF  166.7           166.7           166.7           166.7          
          NF    1               1               1               1            
          BR    1               1               1               1            
          NR    1               1               1               1            
          CN    2.2             2.2             2.2             2.2          
           D     .52             .52             .52             .52         


               X_inv_A.qx      X_int_C_A.qx    X_U2A.qx        X_U3A.qx        
               PNP             PNP             PNP             PNP             
          IS  800.000000E-18  800.000000E-18  800.000000E-18  800.000000E-18 
          BF  166.7           166.7           166.7           166.7          
          NF    1               1               1               1            
          BR    1               1               1               1            
          NR    1               1               1               1            
          CN    2.2             2.2             2.2             2.2          
           D     .52             .52             .52             .52         


**** 12/09/19 13:06:42 ********* PSpice 9.2 (Mar 2000) ******** ID# 0 ********

 ** Profile: "SCHEMATIC1-parab_tfPid"  [ C:\Program Files\Orcad\Files\tf_pid_parab-SCHEMATIC1-parab_tfPid.sim ] 


 ****     Current Controlled Switch MODEL PARAMETERS


******************************************************************************




               X_PropA.sw2     X_PropA.sw1     X_PropA.sw3     X_PropA.sw4     
         RON    1               1               1               1            
        ROFF   10.000000E+06   10.000000E+06   10.000000E+06   10.000000E+06 
         ION    0              -1.000000E-06   -1.000000E-06    0            
        IOFF   -1.000000E-06    0               0              -1.000000E-06 


               X_intA.sw2      X_intA.sw1      X_intA.sw3      X_intA.sw4      
         RON    1               1               1               1            
        ROFF   10.000000E+06   10.000000E+06   10.000000E+06   10.000000E+06 
         ION    0              -1.000000E-06   -1.000000E-06    0            
        IOFF   -1.000000E-06    0               0              -1.000000E-06 


               X_diffA.sw2     X_diffA.sw1     X_diffA.sw3     X_diffA.sw4     
         RON    1               1               1               1            
        ROFF   10.000000E+06   10.000000E+06   10.000000E+06   10.000000E+06 
         ION    0              -1.000000E-06   -1.000000E-06    0            
        IOFF   -1.000000E-06    0               0              -1.000000E-06 


               X_U7A.sw2       X_U7A.sw1       X_U7A.sw3       X_U7A.sw4       
         RON    1               1               1               1            
        ROFF   10.000000E+06   10.000000E+06   10.000000E+06   10.000000E+06 
         ION    0              -1.000000E-06   -1.000000E-06    0            
        IOFF   -1.000000E-06    0               0              -1.000000E-06 


               X_inv_A.sw2     X_inv_A.sw1     X_inv_A.sw3     X_inv_A.sw4     
         RON    1               1               1               1            
        ROFF   10.000000E+06   10.000000E+06   10.000000E+06   10.000000E+06 
         ION    0              -1.000000E-06   -1.000000E-06    0            
        IOFF   -1.000000E-06    0               0              -1.000000E-06 


               X_int_C_A.sw2   X_int_C_A.sw1   X_int_C_A.sw3   X_int_C_A.sw4   
         RON    1               1               1               1            
        ROFF   10.000000E+06   10.000000E+06   10.000000E+06   10.000000E+06 
         ION    0              -1.000000E-06   -1.000000E-06    0            
        IOFF   -1.000000E-06    0               0              -1.000000E-06 


               X_U2A.sw2       X_U2A.sw1       X_U2A.sw3       X_U2A.sw4       
         RON    1               1               1               1            
        ROFF   10.000000E+06   10.000000E+06   10.000000E+06   10.000000E+06 
         ION    0              -1.000000E-06   -1.000000E-06    0            
        IOFF   -1.000000E-06    0               0              -1.000000E-06 


               X_U3A.sw2       X_U3A.sw1       X_U3A.sw3       X_U3A.sw4       
         RON    1               1               1               1            
        ROFF   10.000000E+06   10.000000E+06   10.000000E+06   10.000000E+06 
         ION    0              -1.000000E-06   -1.000000E-06    0            
        IOFF   -1.000000E-06    0               0              -1.000000E-06 


ERROR -- Convergence problem in transient analysis at Time =  10.03
         Time step =  86.24E-12, minimum allowable step size =  250.0E-12

  These voltages failed to converge:

    V(X_int_C_A.11)           =    -8.073V  \     -9.80V
    V(X_int_C_A.12)           =    -8.292V  \     -9.95V

  These supply currents failed to converge:

    I(V_V16)                  =    46.49mA  \    45.85mA
    I(X_int_C_A.vc)           =  -595.38pA  \   -3.493nA
    I(X_int_C_A.ve)           =    3.234nA  \    19.91nA
    I(X_U2A.ve)               =   -20.25nA  \   -20.28nA



  Last node voltages tried were:

 NODE   VOLTAGE     NODE   VOLTAGE     NODE   VOLTAGE     NODE   VOLTAGE


(N00016)   14.1100 (N00040)   14.1050 (N00576)   15.0000 (N02862)     .1867     

(N02867)    7.1458 (N02884)    7.1483 (N06272)-186.4E-06 (N06285)    -.3483     

(N06372)-35.30E-06 (N06466)  -14.1760 (N06703)-466.5E-06 (N06713)    -.0322     

(N06797)  -15.0000 (N06825)  -15.0000 (N06829)  -15.0000 (N06833)   15.0000     

(N06879)    -.0629 (N07469)   14.3050 (N07970)   15.0000 (N08145)   15.0000     

(N09836)   14.1440 (N14067)   15.0000 (N31051)  -15.0000 (N41775)  -14.3080     

(N41779)  238.0000 (N51858)    -.0055 (N51916)   14.2970 (N006784)  -15.0000    

(N028554)  -15.0000                   (N065443)   15.0000                       

(N418433)   15.0000                   (N418434)  -15.0000                       

(N419351)  250.0000                   (N516303)   15.0000                       

(N516304)  -15.0000                   (X_U2A.6)    -.0028                       

(X_U2A.7)   14.4470                   (X_U2A.8)   14.4470                       

(X_U2A.9)    0.0000                   (X_U2A.a)   14.9930                       

(X_U2A.b)    -.0068                   (X_U3A.6) 58.70E-06                       

(X_U3A.7)    -.1410                   (X_U3A.8)    -.1410                       

(X_U3A.9)    0.0000                   (X_U3A.a)     .0066                       

(X_U3A.b)  -14.9930                   (X_U7A.6)   -1.0402                       

(X_U7A.7)   16.3350                   (X_U7A.8)   16.3350                       

(X_U7A.9)    0.0000                   (X_U7A.a)   14.9590                       

(X_U7A.b)    -.0406                   (X_intA.6)     .0029                      

(X_intA.7)  -14.8910                  (X_intA.8)  -14.8910                      

(X_intA.9)    0.0000                  (X_intA.a)     .0143                      

(X_intA.b)  -14.9860                  (X_U2A.10)   14.7120                      

(X_U2A.11)  -14.9610                  (X_U2A.12)  -14.9660                      

(X_U2A.13)   14.6980                  (X_U2A.14)   14.7000                      

(X_U2A.53)   13.5000                  (X_U2A.54)  -14.1780                      

(X_U2A.90)    6.8441                  (X_U2A.91)   40.0000                      

(X_U2A.92)  -40.0000                  (X_U2A.99)    0.0000                      

(X_U3A.10)    7.7533                  (X_U3A.11)  -14.9610                      

(X_U3A.12)  -14.9630                  (X_U3A.13)    7.7395                      

(X_U3A.14)    7.7404                  (X_U3A.53)   13.5000                      

(X_U3A.54)  -14.1780                  (X_U3A.90)   -6.5538                      

(X_U3A.91)   40.0000                  (X_U3A.92)  -40.0000                      

(X_U3A.99)    0.0000                  (X_U7A.10)     .5679                      

(X_U7A.11)  -14.9330                  (X_U7A.12)  -14.9880                      

(X_U7A.13)     .5445                  (X_U7A.14)     .5636                      

(X_U7A.53)   13.5000                  (X_U7A.54)  -14.1780                      

(X_U7A.90)   40.6010                  (X_U7A.91)   40.0000                      

(X_U7A.92)  -40.0000                  (X_U7A.99)    0.0000                      

(X_diffA.6) 6.054E-06                 (X_diffA.7)    -.0323                     

(X_diffA.8)    -.0323                 (X_diffA.9)    0.0000                     

(X_diffA.a) 2.634E-06                 (X_diffA.b)  -15.0000                     

(X_intA.10)     .6077                 (X_intA.11)  -14.9600                     

(X_intA.12)  -14.9600                 (X_intA.13)     .5938                     

(X_intA.14)     .5938                 (X_intA.53)   13.5000                     

(X_intA.54)  -14.1780                 (X_intA.90)  -14.3000                     

(X_intA.91)   40.0000                 (X_intA.92)  -40.0000                     

(X_intA.99)    0.0000                 (X_inv_A.6)    -.0996                     

(X_inv_A.7)   16.3200                 (X_inv_A.8)   16.3200                     

(X_inv_A.9)    0.0000                 (X_inv_A.a)   14.9600                     

(X_inv_A.b)    -.0405                 (X_PropA.6) 72.41E-06                     

(X_PropA.7)    -.3719                 (X_PropA.8)    -.3719                     

(X_PropA.9)    0.0000                 (X_PropA.a) 473.8E-06                     

(X_PropA.b)  -15.0000                 (X_diffA.10)     .6074                    

(X_diffA.11)  -14.9600                (X_diffA.12)  -14.9610                    

(X_diffA.13)     .5935                (X_diffA.14)     .5936                    

(X_diffA.53)   13.5000                (X_diffA.54)  -14.1780                    

(X_diffA.90)    -.0011                (X_diffA.91)   40.0000                    

(X_diffA.92)  -40.0000                (X_diffA.99)    0.0000                    

(X_inv_A.10)     .6049                (X_inv_A.11)  -14.9580                    

(X_inv_A.12)  -14.9630                (X_inv_A.13)     .5900                    

(X_inv_A.14)     .5919                (X_inv_A.53)   13.5000                    

(X_inv_A.54)  -14.1780                (X_inv_A.90)   40.4730                    

(X_inv_A.91)   40.0000                (X_inv_A.92)  -40.0000                    

(X_inv_A.99)    0.0000                (X_PropA.10)     .6076                    

(X_PropA.11)  -14.9600                (X_PropA.12)  -14.9600                    

(X_PropA.13)     .5937                (X_PropA.14)     .5937                    

(X_PropA.53)   13.5000                (X_PropA.54)  -14.1780                    

(X_PropA.90)    -.4723                (X_PropA.91)   40.0000                    

(X_PropA.92)  -40.0000                (X_PropA.99)    0.0000                    

(X_int_C_A.6)    1.4977               (X_int_C_A.7)  -16.3380                   

(X_int_C_A.8)  -16.3380               (X_int_C_A.9)    0.0000                   

(X_int_C_A.a)     .0406               (X_int_C_A.b)  -14.9590                   

(X_int_C_A.10)     .6395              (X_int_C_A.11)   -8.0728                  

(X_int_C_A.12)   -8.2919              (X_int_C_A.13)     .6395                  

(X_int_C_A.14)     .6117              (X_int_C_A.53)   13.5000                  

(X_int_C_A.54)  -14.1780              (X_int_C_A.90)  -40.6130                  

(X_int_C_A.91)   40.0000              (X_int_C_A.92)  -40.0000                  

(X_int_C_A.99)    0.0000              

