
**** 12/02/19 17:21:15 ********* PSpice 9.2 (Mar 2000) ******** ID# 0 ********

 ** Profile: "SCHEMATIC1-parabola"  [ C:\Program Files\Orcad\Files\tf_pid_parab-SCHEMATIC1-parabola.sim ] 


 ****     CIRCUIT DESCRIPTION


******************************************************************************




** Creating circuit file "tf_pid_parab-SCHEMATIC1-parabola.sim.cir" 
** WARNING: THIS AUTOMATICALLY GENERATED FILE MAY BE OVERWRITTEN BY SUBSEQUENT SIMULATIONS

*Libraries: 
* Local Libraries :
* From [PSPICE NETLIST] section of C:\Program Files\Orcad\PSpice\PSpice.ini file:
.lib "nom.lib" 

*Analysis directives: 
.TRAN  0 10s 0 SKIPBP 
.OPTIONS STEPGMIN
.OPTIONS ABSTOL= 1.0n
.OPTIONS ITL4= 100
.OPTIONS RELTOL= 0.01
.OPTIONS VNTOL= 1.0m
.PROBE V(*) I(*) W(*) D(*) NOISE(*) 
.INC ".\tf_pid_parab-SCHEMATIC1.net" 



**** INCLUDING tf_pid_parab-SCHEMATIC1.net ****
* source TF_PID_PARAB
X_PropA         N06272 0 N31051 N08145 N06285 LM324
R_R12         N419351 N41779  1k  
X_intA         N06372 0 N06797 N14067 N06466 LM324
V_V5         N08145 0 15
X_diffA         N06703 0 N06825 N06833 N06713 LM324
R_R10         N09836 N00014  1k  
C_C1         N09836 N00040  .1667m  
C_C2         N00014 0  10.41u  
V_V12         N516304 0 -15
V_V2         N07970 0 15
V_V18         N419351 0  
+PULSE 0 1 0 10 10 1 10
V_V4         N31051 0 -15
V_V7         N14067 0 -15
V_V9         N06833 0 -15
X_U7A         N06879 0 N06829 N065444 N07469 LM324
V_V11         N065444 0 -15
V_V6         N06797 0 15
V_V8         N06825 0 15
V_V10         N06829 0 15
X_inv_A         N51825 0 N516303 N516304 N51916 LM324
V_V15         N516303 0 15
V_V14         N00576 0 15
R_R6         N06466 N06879  1k  
C_C3         N41779 N41775  500u  
C_Ci         N06372 N06466  26.85u  
R_R2         N02867 N02862  1k  
R_R11         N41775 N51825  1k  
X_int_C_A         0 N41779 N418433 N418434 N41775 LM324
R_R9         N07469 N09836  1k  
V_V16         N418434 0 -15
C_Cd         N02862 N06703  32.3u  
V_V13         N006784 0 -15
X_U2A         N00014 N00040 N00576 N006784 N00040 LM324
R_R13         N51825 N51916  1k  
R_R1         N00040 N02867  1k  
R_R3         N51916 N02884  1k  
R_R4         0 N02884  1k  
V_V17         N418433 0 15
X_U3A         N02884 N02867 N07970 N028554 N02862 LM324
R_R14         0 N41775  1k  
R_Rp1         N02862 N06272  1k  
R_Rp2         N06272 N06285  1.862k  
R_Ri         N02862 N06372  1k  
R_Rd         N06703 N06713  1k  
R_R5         N06285 N06879  1k  
V_V3         N028554 0 -15
R_R7         N06713 N06879  1k  
R_R8         N06879 N07469  1k  

**** RESUMING tf_pid_parab-SCHEMATIC1-parabola.sim.cir ****
.END

**** 12/02/19 17:21:15 ********* PSpice 9.2 (Mar 2000) ******** ID# 0 ********

 ** Profile: "SCHEMATIC1-parabola"  [ C:\Program Files\Orcad\Files\tf_pid_parab-SCHEMATIC1-parabola.sim ] 


 ****     Diode MODEL PARAMETERS


******************************************************************************




               X_PropA.dx      X_PropA.dy      X_intA.dx       X_intA.dy       
          IS  800.000000E-18  800.000000E-18  800.000000E-18  800.000000E-18 
          RS    1               1.000000E-03    1               1.000000E-03 
         CJO                   10.000000E-12                   10.000000E-12 


               X_diffA.dx      X_diffA.dy      X_U7A.dx        X_U7A.dy        
          IS  800.000000E-18  800.000000E-18  800.000000E-18  800.000000E-18 
          RS    1               1.000000E-03    1               1.000000E-03 
         CJO                   10.000000E-12                   10.000000E-12 


               X_inv_A.dx      X_inv_A.dy      X_int_C_A.dx    X_int_C_A.dy    
          IS  800.000000E-18  800.000000E-18  800.000000E-18  800.000000E-18 
          RS    1               1.000000E-03    1               1.000000E-03 
         CJO                   10.000000E-12                   10.000000E-12 


               X_U2A.dx        X_U2A.dy        X_U3A.dx        X_U3A.dy        
          IS  800.000000E-18  800.000000E-18  800.000000E-18  800.000000E-18 
          RS    1               1.000000E-03    1               1.000000E-03 
         CJO                   10.000000E-12                   10.000000E-12 


**** 12/02/19 17:21:15 ********* PSpice 9.2 (Mar 2000) ******** ID# 0 ********

 ** Profile: "SCHEMATIC1-parabola"  [ C:\Program Files\Orcad\Files\tf_pid_parab-SCHEMATIC1-parabola.sim ] 


 ****     BJT MODEL PARAMETERS


******************************************************************************




               X_PropA.qx      X_intA.qx       X_diffA.qx      X_U7A.qx        
               PNP             PNP             PNP             PNP             
          IS  800.000000E-18  800.000000E-18  800.000000E-18  800.000000E-18 
          BF  166.7           166.7           166.7           166.7          
          NF    1               1               1               1            
          BR    1               1               1               1            
          NR    1               1               1               1            
          CN    2.2             2.2             2.2             2.2          
           D     .52             .52             .52             .52         


               X_inv_A.qx      X_int_C_A.qx    X_U2A.qx        X_U3A.qx        
               PNP             PNP             PNP             PNP             
          IS  800.000000E-18  800.000000E-18  800.000000E-18  800.000000E-18 
          BF  166.7           166.7           166.7           166.7          
          NF    1               1               1               1            
          BR    1               1               1               1            
          NR    1               1               1               1            
          CN    2.2             2.2             2.2             2.2          
           D     .52             .52             .52             .52         


**** 12/02/19 17:21:15 ********* PSpice 9.2 (Mar 2000) ******** ID# 0 ********

 ** Profile: "SCHEMATIC1-parabola"  [ C:\Program Files\Orcad\Files\tf_pid_parab-SCHEMATIC1-parabola.sim ] 


 ****     Current Controlled Switch MODEL PARAMETERS


******************************************************************************




               X_PropA.sw2     X_PropA.sw1     X_PropA.sw3     X_PropA.sw4     
         RON    1               1               1               1            
        ROFF   10.000000E+06   10.000000E+06   10.000000E+06   10.000000E+06 
         ION    0              -1.000000E-06   -1.000000E-06    0            
        IOFF   -1.000000E-06    0               0              -1.000000E-06 


               X_intA.sw2      X_intA.sw1      X_intA.sw3      X_intA.sw4      
         RON    1               1               1               1            
        ROFF   10.000000E+06   10.000000E+06   10.000000E+06   10.000000E+06 
         ION    0              -1.000000E-06   -1.000000E-06    0            
        IOFF   -1.000000E-06    0               0              -1.000000E-06 


               X_diffA.sw2     X_diffA.sw1     X_diffA.sw3     X_diffA.sw4     
         RON    1               1               1               1            
        ROFF   10.000000E+06   10.000000E+06   10.000000E+06   10.000000E+06 
         ION    0              -1.000000E-06   -1.000000E-06    0            
        IOFF   -1.000000E-06    0               0              -1.000000E-06 


               X_U7A.sw2       X_U7A.sw1       X_U7A.sw3       X_U7A.sw4       
         RON    1               1               1               1            
        ROFF   10.000000E+06   10.000000E+06   10.000000E+06   10.000000E+06 
         ION    0              -1.000000E-06   -1.000000E-06    0            
        IOFF   -1.000000E-06    0               0              -1.000000E-06 


               X_inv_A.sw2     X_inv_A.sw1     X_inv_A.sw3     X_inv_A.sw4     
         RON    1               1               1               1            
        ROFF   10.000000E+06   10.000000E+06   10.000000E+06   10.000000E+06 
         ION    0              -1.000000E-06   -1.000000E-06    0            
        IOFF   -1.000000E-06    0               0              -1.000000E-06 


               X_int_C_A.sw2   X_int_C_A.sw1   X_int_C_A.sw3   X_int_C_A.sw4   
         RON    1               1               1               1            
        ROFF   10.000000E+06   10.000000E+06   10.000000E+06   10.000000E+06 
         ION    0              -1.000000E-06   -1.000000E-06    0            
        IOFF   -1.000000E-06    0               0              -1.000000E-06 


               X_U2A.sw2       X_U2A.sw1       X_U2A.sw3       X_U2A.sw4       
         RON    1               1               1               1            
        ROFF   10.000000E+06   10.000000E+06   10.000000E+06   10.000000E+06 
         ION    0              -1.000000E-06   -1.000000E-06    0            
        IOFF   -1.000000E-06    0               0              -1.000000E-06 


               X_U3A.sw2       X_U3A.sw1       X_U3A.sw3       X_U3A.sw4       
         RON    1               1               1               1            
        ROFF   10.000000E+06   10.000000E+06   10.000000E+06   10.000000E+06 
         ION    0              -1.000000E-06   -1.000000E-06    0            
        IOFF   -1.000000E-06    0               0              -1.000000E-06 


WARNING -- Pulse Period < (Rise Time + Fall Time + Pulse Width) for V_V18
WARNING -- Pulse Period < (Rise Time + Fall Time + Pulse Width) for V_V18

          JOB CONCLUDED

          TOTAL JOB TIME             .67
