
**** 04/25/20 06:49:34 ********* PSpice 9.2 (Mar 2000) ******** ID# 0 ********

 ** Profile: "SCHEMATIC1-TF_PARAB"  [ C:\Program Files\Orcad\Files\tf_parabolic-schematic1-tf_parab.sim ] 


 ****     CIRCUIT DESCRIPTION


******************************************************************************




** Creating circuit file "tf_parabolic-schematic1-tf_parab.sim.cir" 
** WARNING: THIS AUTOMATICALLY GENERATED FILE MAY BE OVERWRITTEN BY SUBSEQUENT SIMULATIONS

*Libraries: 
* Local Libraries :
* From [PSPICE NETLIST] section of C:\Program Files\Orcad\PSpice\PSpice.ini file:
.lib "nom.lib" 

*Analysis directives: 
.TRAN  0 1 0 SKIPBP 
.PROBE V(*) I(*) W(*) D(*) NOISE(*) 
.INC ".\tf_parabolic-SCHEMATIC1.net" 



**** INCLUDING tf_parabolic-SCHEMATIC1.net ****
* source TF_PARABOLIC
R_R12         N419351 N41779  1k  
V_V12         N516303 0 15
X_U2A         N40893 N40209 N40695 N405034 N40209 LM324
C_C2         N40893 0  10.41u  
V_V3         N402970 0 -15
R_R2         N41145 N40987  1k  
V_V4         N419351 0  
+PULSE 0 10 0 10 10 1 30
X_inv_A         0 N51858 N516303 N516304 N51916 LM324
V_V15         N516304 0 -15
R_R1         N40209 N41145  1k  
R_R9         N40987 N40393  1k  
C_C3         N41779 N41775  500u  
R_R10         N40393 N40893  1k  
R_R4         0 N40217  1k  
R_R3         N51916 N40217  1k  
C_C1         N40393 N40209  .1667m  
R_R11         N41775 N51858  1k  
X_int_C_A         0 N41779 N418433 N418434 N41775 LM324
V_V16         N418434 0 -15
X_U3A         N40217 N41145 N40791 N402970 N40987 LM324
V_V2         N40791 0 15
R_R13         N51858 N51916  1k  
V_V17         N418433 0 15
V_V13         N405034 0 -15
R_R14         0 N41775  1k  
V_V14         N40695 0 15

**** RESUMING tf_parabolic-schematic1-tf_parab.sim.cir ****
.END

**** 04/25/20 06:49:34 ********* PSpice 9.2 (Mar 2000) ******** ID# 0 ********

 ** Profile: "SCHEMATIC1-TF_PARAB"  [ C:\Program Files\Orcad\Files\tf_parabolic-schematic1-tf_parab.sim ] 


 ****     Diode MODEL PARAMETERS


******************************************************************************




               X_U2A.dx        X_U2A.dy        X_inv_A.dx      X_inv_A.dy      
          IS  800.000000E-18  800.000000E-18  800.000000E-18  800.000000E-18 
          RS    1               1.000000E-03    1               1.000000E-03 
         CJO                   10.000000E-12                   10.000000E-12 


               X_int_C_A.dx    X_int_C_A.dy    X_U3A.dx        X_U3A.dy        
          IS  800.000000E-18  800.000000E-18  800.000000E-18  800.000000E-18 
          RS    1               1.000000E-03    1               1.000000E-03 
         CJO                   10.000000E-12                   10.000000E-12 


**** 04/25/20 06:49:34 ********* PSpice 9.2 (Mar 2000) ******** ID# 0 ********

 ** Profile: "SCHEMATIC1-TF_PARAB"  [ C:\Program Files\Orcad\Files\tf_parabolic-schematic1-tf_parab.sim ] 


 ****     BJT MODEL PARAMETERS


******************************************************************************




               X_U2A.qx        X_inv_A.qx      X_int_C_A.qx    X_U3A.qx        
               PNP             PNP             PNP             PNP             
          IS  800.000000E-18  800.000000E-18  800.000000E-18  800.000000E-18 
          BF  166.7           166.7           166.7           166.7          
          NF    1               1               1               1            
          BR    1               1               1               1            
          NR    1               1               1               1            
          CN    2.2             2.2             2.2             2.2          
           D     .52             .52             .52             .52         


**** 04/25/20 06:49:34 ********* PSpice 9.2 (Mar 2000) ******** ID# 0 ********

 ** Profile: "SCHEMATIC1-TF_PARAB"  [ C:\Program Files\Orcad\Files\tf_parabolic-schematic1-tf_parab.sim ] 


 ****     Current Controlled Switch MODEL PARAMETERS


******************************************************************************




               X_U2A.sw2       X_U2A.sw1       X_U2A.sw3       X_U2A.sw4       
         RON    1               1               1               1            
        ROFF   10.000000E+06   10.000000E+06   10.000000E+06   10.000000E+06 
         ION    0              -1.000000E-06   -1.000000E-06    0            
        IOFF   -1.000000E-06    0               0              -1.000000E-06 


               X_inv_A.sw2     X_inv_A.sw1     X_inv_A.sw3     X_inv_A.sw4     
         RON    1               1               1               1            
        ROFF   10.000000E+06   10.000000E+06   10.000000E+06   10.000000E+06 
         ION    0              -1.000000E-06   -1.000000E-06    0            
        IOFF   -1.000000E-06    0               0              -1.000000E-06 


               X_int_C_A.sw2   X_int_C_A.sw1   X_int_C_A.sw3   X_int_C_A.sw4   
         RON    1               1               1               1            
        ROFF   10.000000E+06   10.000000E+06   10.000000E+06   10.000000E+06 
         ION    0              -1.000000E-06   -1.000000E-06    0            
        IOFF   -1.000000E-06    0               0              -1.000000E-06 


               X_U3A.sw2       X_U3A.sw1       X_U3A.sw3       X_U3A.sw4       
         RON    1               1               1               1            
        ROFF   10.000000E+06   10.000000E+06   10.000000E+06   10.000000E+06 
         ION    0              -1.000000E-06   -1.000000E-06    0            
        IOFF   -1.000000E-06    0               0              -1.000000E-06 



          JOB CONCLUDED

          TOTAL JOB TIME             .17
