
**** 12/09/19 20:15:04 ********* PSpice 9.2 (Mar 2000) ******** ID# 0 ********

 ** Profile: "SCHEMATIC1-pidstep"  [ C:\Program Files\Orcad\Files\tf_pid_step-SCHEMATIC1-pidstep.sim ] 


 ****     CIRCUIT DESCRIPTION


******************************************************************************




** Creating circuit file "tf_pid_step-SCHEMATIC1-pidstep.sim.cir" 
** WARNING: THIS AUTOMATICALLY GENERATED FILE MAY BE OVERWRITTEN BY SUBSEQUENT SIMULATIONS

*Libraries: 
* Local Libraries :
* From [PSPICE NETLIST] section of C:\Program Files\Orcad\PSpice\PSpice.ini file:
.lib "nom.lib" 

*Analysis directives: 
.TRAN  0 1 0 SKIPBP 
.PROBE V(*) I(*) W(*) D(*) NOISE(*) 
.INC ".\tf_pid_step-SCHEMATIC1.net" 



**** INCLUDING tf_pid_step-SCHEMATIC1.net ****
* source TF_PID_STEP
X_U2A         N40807 N40209 N40695 N405034 N40209 LM324
R_Ri         N40987 N41027  1k  
V_V12         N55149 0 1Vdc
X_intA         0 N41027 N40929 N40979 N40269 LM324
C_C2         N40807 0  10.41u  
R_R6         N40269 N40213  1k  
R_Rp1         N40987 N40273  1k  
R_R2         N41145 N40987  1k  
V_V3         N402970 0 -15
V_V11         N405510 0 15
V_V10         N40335 0 -15
C_Ci         N41027 N40269  26.85u  
R_R1         N40209 N41145  1k  
V_V9         N40401 0 15
R_R9         N41015 N40393  1k  
R_R10         N40393 N40807  1k  
R_R4         0 N40217  1k  
X_diffA         0 N40255 N40401 N50782 N40277 LM324
R_R3         N55149 N40217  1k  
V_V4         N31051 0 -15
C_C1         N40393 N40209  .1667m  
R_Rd         N40255 N40277  1k  
R_R7         N40277 N40213  1k  
X_U7A         0 N40213 N405510 N40335 N41015 LM324
C_Cd         N40987 N40255  32.3u  
V_V5         N40531 0 15
R_Rp2         N40273 N40521  1.862k  
V_V6         N40979 0 -15
R_R8         N40213 N41015  1k  
X_U3A         N40217 N41145 N40791 N402970 N40987 LM324
X_PropA         0 N40273 N40531 N31051 N40521 LM324
V_V2         N40791 0 15
V_V13         N405034 0 -15
V_V8         N50782 0 -15
R_R5         N40521 N40213  1k  
V_V14         N40695 0 15
V_V7         N40929 0 15

**** RESUMING tf_pid_step-SCHEMATIC1-pidstep.sim.cir ****
.END

**** 12/09/19 20:15:04 ********* PSpice 9.2 (Mar 2000) ******** ID# 0 ********

 ** Profile: "SCHEMATIC1-pidstep"  [ C:\Program Files\Orcad\Files\tf_pid_step-SCHEMATIC1-pidstep.sim ] 


 ****     Diode MODEL PARAMETERS


******************************************************************************




               X_U2A.dx        X_U2A.dy        X_intA.dx       X_intA.dy       
          IS  800.000000E-18  800.000000E-18  800.000000E-18  800.000000E-18 
          RS    1               1.000000E-03    1               1.000000E-03 
         CJO                   10.000000E-12                   10.000000E-12 


               X_diffA.dx      X_diffA.dy      X_U7A.dx        X_U7A.dy        
          IS  800.000000E-18  800.000000E-18  800.000000E-18  800.000000E-18 
          RS    1               1.000000E-03    1               1.000000E-03 
         CJO                   10.000000E-12                   10.000000E-12 


               X_U3A.dx        X_U3A.dy        X_PropA.dx      X_PropA.dy      
          IS  800.000000E-18  800.000000E-18  800.000000E-18  800.000000E-18 
          RS    1               1.000000E-03    1               1.000000E-03 
         CJO                   10.000000E-12                   10.000000E-12 


**** 12/09/19 20:15:04 ********* PSpice 9.2 (Mar 2000) ******** ID# 0 ********

 ** Profile: "SCHEMATIC1-pidstep"  [ C:\Program Files\Orcad\Files\tf_pid_step-SCHEMATIC1-pidstep.sim ] 


 ****     BJT MODEL PARAMETERS


******************************************************************************




               X_U2A.qx        X_intA.qx       X_diffA.qx      X_U7A.qx        
               PNP             PNP             PNP             PNP             
          IS  800.000000E-18  800.000000E-18  800.000000E-18  800.000000E-18 
          BF  166.7           166.7           166.7           166.7          
          NF    1               1               1               1            
          BR    1               1               1               1            
          NR    1               1               1               1            
          CN    2.2             2.2             2.2             2.2          
           D     .52             .52             .52             .52         


               X_U3A.qx        X_PropA.qx      
               PNP             PNP             
          IS  800.000000E-18  800.000000E-18 
          BF  166.7           166.7          
          NF    1               1            
          BR    1               1            
          NR    1               1            
          CN    2.2             2.2          
           D     .52             .52         


**** 12/09/19 20:15:04 ********* PSpice 9.2 (Mar 2000) ******** ID# 0 ********

 ** Profile: "SCHEMATIC1-pidstep"  [ C:\Program Files\Orcad\Files\tf_pid_step-SCHEMATIC1-pidstep.sim ] 


 ****     Current Controlled Switch MODEL PARAMETERS


******************************************************************************




               X_U2A.sw2       X_U2A.sw1       X_U2A.sw3       X_U2A.sw4       
         RON    1               1               1               1            
        ROFF   10.000000E+06   10.000000E+06   10.000000E+06   10.000000E+06 
         ION    0              -1.000000E-06   -1.000000E-06    0            
        IOFF   -1.000000E-06    0               0              -1.000000E-06 


               X_intA.sw2      X_intA.sw1      X_intA.sw3      X_intA.sw4      
         RON    1               1               1               1            
        ROFF   10.000000E+06   10.000000E+06   10.000000E+06   10.000000E+06 
         ION    0              -1.000000E-06   -1.000000E-06    0            
        IOFF   -1.000000E-06    0               0              -1.000000E-06 


               X_diffA.sw2     X_diffA.sw1     X_diffA.sw3     X_diffA.sw4     
         RON    1               1               1               1            
        ROFF   10.000000E+06   10.000000E+06   10.000000E+06   10.000000E+06 
         ION    0              -1.000000E-06   -1.000000E-06    0            
        IOFF   -1.000000E-06    0               0              -1.000000E-06 


               X_U7A.sw2       X_U7A.sw1       X_U7A.sw3       X_U7A.sw4       
         RON    1               1               1               1            
        ROFF   10.000000E+06   10.000000E+06   10.000000E+06   10.000000E+06 
         ION    0              -1.000000E-06   -1.000000E-06    0            
        IOFF   -1.000000E-06    0               0              -1.000000E-06 


               X_U3A.sw2       X_U3A.sw1       X_U3A.sw3       X_U3A.sw4       
         RON    1               1               1               1            
        ROFF   10.000000E+06   10.000000E+06   10.000000E+06   10.000000E+06 
         ION    0              -1.000000E-06   -1.000000E-06    0            
        IOFF   -1.000000E-06    0               0              -1.000000E-06 


               X_PropA.sw2     X_PropA.sw1     X_PropA.sw3     X_PropA.sw4     
         RON    1               1               1               1            
        ROFF   10.000000E+06   10.000000E+06   10.000000E+06   10.000000E+06 
         ION    0              -1.000000E-06   -1.000000E-06    0            
        IOFF   -1.000000E-06    0               0              -1.000000E-06 


ERROR -- Convergence problem in transient analysis at Time =  2.179E-03
         Time step =  764.2E-15, minimum allowable step size =  1.000E-12

  These supply currents failed to converge:

    I(X_intA.ve)              =  -148.56pA  \  -147.40pA



  Last node voltages tried were:

 NODE   VOLTAGE     NODE   VOLTAGE     NODE   VOLTAGE     NODE   VOLTAGE


(N31051)  -15.0000 (N40209)     .0178 (N40213)     .0340 (N40217)     .5000     

(N40255)    -.0345 (N40269)    -.0807 (N40273)-176.5E-06 (N40277)    -.0010     

(N40335)  -15.0000 (N40393)     .1993 (N40401)   15.0000 (N40521)   -1.8337     

(N40531)   15.0000 (N40695)   15.0000 (N40791)   15.0000 (N40807)     .0195     

(N40929)   15.0000 (N40979)  -15.0000 (N40987)     .9845 (N41015)    2.0517     

(N41027)-184.7E-06 (N41145)     .5012 (N50782)  -15.0000 (N55149)    1.0000     

(N402970)  -15.0000                   (N405034)  -15.0000                       

(N405510)   15.0000                   (X_U2A.6) 27.53E-06                       

(X_U2A.7)    -.0900                   (X_U2A.8)    -.0900                       

(X_U2A.9)    0.0000                   (X_U2A.a)     .0022                       

(X_U2A.b)  -14.9980                   (X_U3A.6)-220.2E-06                       

(X_U3A.7)    1.1055                   (X_U3A.8)    1.1055                       

(X_U3A.9)    0.0000                   (X_U3A.a)   14.9980                       

(X_U3A.b)    -.0024                   (X_U7A.6)-437.5E-06                       

(X_U7A.7)    2.2451                   (X_U7A.8)    2.2451                       

(X_U7A.9)    0.0000                   (X_U7A.a)   14.9960                       

(X_U7A.b)    -.0039                   (X_intA.6) 30.97E-06                      

(X_intA.7)    -.1357                  (X_intA.8)    -.1357                      

(X_intA.9)    0.0000                  (X_intA.a)     .0011                      

(X_intA.b)  -14.9990                  (X_U2A.10)     .6263                      

(X_U2A.11)  -14.9590                  (X_U2A.12)  -14.9610                      

(X_U2A.13)     .6121                  (X_U2A.14)     .6127                      

(X_U2A.53)   13.5000                  (X_U2A.54)  -14.1780                      

(X_U2A.90)   -2.1559                  (X_U2A.91)   40.0000                      

(X_U2A.92)  -40.0000                  (X_U2A.99)    0.0000                      

(X_U3A.10)    1.1082                  (X_U3A.11)  -14.9610                      

(X_U3A.12)  -14.9600                  (X_U3A.13)    1.0945                      

(X_U3A.14)    1.0941                  (X_U3A.53)   13.5000                      

(X_U3A.54)  -14.1780                  (X_U3A.90)    2.4192                      

(X_U3A.91)   40.0000                  (X_U3A.92)  -40.0000                      

(X_U3A.99)    0.0000                  (X_U7A.10)     .6223                      

(X_U7A.11)  -14.9770                  (X_U7A.12)  -14.9440                      

(X_U7A.13)     .6141                  (X_U7A.14)     .6027                      

(X_U7A.53)   13.5000                  (X_U7A.54)  -14.1780                      

(X_U7A.90)    3.8690                  (X_U7A.91)   40.0000                      

(X_U7A.92)  -40.0000                  (X_U7A.99)    0.0000                      

(X_diffA.6)-4.413E-06                 (X_diffA.7)    -.0011                     

(X_diffA.8)    -.0011                 (X_diffA.9)    0.0000                     

(X_diffA.a)     .0146                 (X_diffA.b)  -14.9850                     

(X_intA.10)     .6076                 (X_intA.11)  -15.1490                     

(X_intA.12)  -15.1490                 (X_intA.13)     .5937                     

(X_intA.14)     .5937                 (X_intA.53)   13.5000                     

(X_intA.54)  -14.1780                 (X_intA.90)   -1.0995                     

(X_intA.91)   40.0000                 (X_intA.92)  -40.0000                     

(X_intA.99)    0.0000                 (X_PropA.6) 386.5E-06                     

(X_PropA.7)   -1.9763                 (X_PropA.8)   -1.9763                     

(X_PropA.9)    0.0000                 (X_PropA.a)     .0029                     

(X_PropA.b)  -14.9970                 (X_diffA.10)     .5880                    

(X_diffA.11)  -14.9440                (X_diffA.12)  -14.9770                    

(X_diffA.13)     .5683                (X_diffA.14)     .5799                    

(X_diffA.53)   13.5000                (X_diffA.54)  -14.1780                    

(X_diffA.90)-647.8E-06                (X_diffA.91)   40.0000                    

(X_diffA.92)  -40.0000                (X_diffA.99)    0.0000                    

(X_PropA.10)     .6076                (X_PropA.11)  -14.9600                    

(X_PropA.12)  -14.9600                (X_PropA.13)     .5937                    

(X_PropA.14)     .5937                (X_PropA.53)   13.5000                    

(X_PropA.54)  -14.1780                (X_PropA.90)   -2.8525                    

(X_PropA.91)   40.0000                (X_PropA.92)  -40.0000                    

(X_PropA.99)    0.0000                


 **** Runtime Parameters
                              
      ABSTOL =      1.0000E-12
        GMIN =      1.0000E-12
        ITL1 =      1.5000E+02
        ITL2 =      2.0000E+01
        ITL4 =      1.0000E+01
      RELTOL =      1.0000E-03
      RUNFOR =      0.0000E+00
        TMAX =      0.0000E+00
       TSTOP =      1.0000E+00
       VNTOL =      1.0000E-06
              
               

ERROR -- Convergence problem in transient analysis at Time =  2.179E-03
         Time step =  764.2E-15, minimum allowable step size =  1.000E-12

  These supply currents failed to converge:

    I(X_intA.ve)              =  -148.56pA  \  -147.40pA



  Last node voltages tried were:

 NODE   VOLTAGE     NODE   VOLTAGE     NODE   VOLTAGE     NODE   VOLTAGE


(N31051)  -15.0000 (N40209)     .0178 (N40213)     .0340 (N40217)     .5000     

(N40255)    -.0345 (N40269)    -.0807 (N40273)-176.5E-06 (N40277)    -.0010     

(N40335)  -15.0000 (N40393)     .1993 (N40401)   15.0000 (N40521)   -1.8337     

(N40531)   15.0000 (N40695)   15.0000 (N40791)   15.0000 (N40807)     .0195     

(N40929)   15.0000 (N40979)  -15.0000 (N40987)     .9845 (N41015)    2.0517     

(N41027)-184.7E-06 (N41145)     .5012 (N50782)  -15.0000 (N55149)    1.0000     

(N402970)  -15.0000                   (N405034)  -15.0000                       

(N405510)   15.0000                   (X_U2A.6) 27.53E-06                       

(X_U2A.7)    -.0900                   (X_U2A.8)    -.0900                       

(X_U2A.9)    0.0000                   (X_U2A.a)     .0022                       

(X_U2A.b)  -14.9980                   (X_U3A.6)-220.2E-06                       

(X_U3A.7)    1.1055                   (X_U3A.8)    1.1055                       

(X_U3A.9)    0.0000                   (X_U3A.a)   14.9980                       

(X_U3A.b)    -.0024                   (X_U7A.6)-437.5E-06                       

(X_U7A.7)    2.2451                   (X_U7A.8)    2.2451                       

(X_U7A.9)    0.0000                   (X_U7A.a)   14.9960                       

(X_U7A.b)    -.0039                   (X_intA.6) 30.97E-06                      

(X_intA.7)    -.1357                  (X_intA.8)    -.1357                      

(X_intA.9)    0.0000                  (X_intA.a)     .0011                      

(X_intA.b)  -14.9990                  (X_U2A.10)     .6263                      

(X_U2A.11)  -14.9590                  (X_U2A.12)  -14.9610                      

(X_U2A.13)     .6121                  (X_U2A.14)     .6127                      

(X_U2A.53)   13.5000                  (X_U2A.54)  -14.1780                      

(X_U2A.90)   -2.1559                  (X_U2A.91)   40.0000                      

(X_U2A.92)  -40.0000                  (X_U2A.99)    0.0000                      

(X_U3A.10)    1.1082                  (X_U3A.11)  -14.9610                      

(X_U3A.12)  -14.9600                  (X_U3A.13)    1.0945                      

(X_U3A.14)    1.0941                  (X_U3A.53)   13.5000                      

(X_U3A.54)  -14.1780                  (X_U3A.90)    2.4192                      

(X_U3A.91)   40.0000                  (X_U3A.92)  -40.0000                      

(X_U3A.99)    0.0000                  (X_U7A.10)     .6223                      

(X_U7A.11)  -14.9770                  (X_U7A.12)  -14.9440                      

(X_U7A.13)     .6141                  (X_U7A.14)     .6027                      

(X_U7A.53)   13.5000                  (X_U7A.54)  -14.1780                      

(X_U7A.90)    3.8690                  (X_U7A.91)   40.0000                      

(X_U7A.92)  -40.0000                  (X_U7A.99)    0.0000                      

(X_diffA.6)-4.413E-06                 (X_diffA.7)    -.0011                     

(X_diffA.8)    -.0011                 (X_diffA.9)    0.0000                     

(X_diffA.a)     .0146                 (X_diffA.b)  -14.9850                     

(X_intA.10)     .6076                 (X_intA.11)  -15.1490                     

(X_intA.12)  -15.1490                 (X_intA.13)     .5937                     

(X_intA.14)     .5937                 (X_intA.53)   13.5000                     

(X_intA.54)  -14.1780                 (X_intA.90)   -1.0995                     

(X_intA.91)   40.0000                 (X_intA.92)  -40.0000                     

(X_intA.99)    0.0000                 (X_PropA.6) 386.5E-06                     

(X_PropA.7)   -1.9763                 (X_PropA.8)   -1.9763                     

(X_PropA.9)    0.0000                 (X_PropA.a)     .0029                     

(X_PropA.b)  -14.9970                 (X_diffA.10)     .5880                    

(X_diffA.11)  -14.9440                (X_diffA.12)  -14.9770                    

(X_diffA.13)     .5683                (X_diffA.14)     .5799                    

(X_diffA.53)   13.5000                (X_diffA.54)  -14.1780                    

(X_diffA.90)-647.8E-06                (X_diffA.91)   40.0000                    

(X_diffA.92)  -40.0000                (X_diffA.99)    0.0000                    

(X_PropA.10)     .6076                (X_PropA.11)  -14.9600                    

(X_PropA.12)  -14.9600                (X_PropA.13)     .5937                    

(X_PropA.14)     .5937                (X_PropA.53)   13.5000                    

(X_PropA.54)  -14.1780                (X_PropA.90)   -2.8525                    

(X_PropA.91)   40.0000                (X_PropA.92)  -40.0000                    

(X_PropA.99)    0.0000                


 **** Runtime Parameters
                              
      ABSTOL =      1.0000E-19
        GMIN =      1.0000E-12
        ITL1 =      1.5000E+02
        ITL2 =      2.0000E+01
        ITL4 =      1.0000E+02
      RELTOL =      1.0000E-02
      RUNFOR =      0.0000E+00
        TMAX =      0.0000E+00
       TSTOP =      1.0000E+00
       VNTOL =      1.0000E-03
              
               

ERROR -- Convergence problem in transient analysis at Time =  2.179E-03
         Time step =  764.2E-15, minimum allowable step size =  1.000E-12

  These supply currents failed to converge:

    I(X_intA.vc)              =   123.43pA  \   179.19pA
    I(X_intA.ve)              =   -94.14pA  \  -149.04pA



  Last node voltages tried were:

 NODE   VOLTAGE     NODE   VOLTAGE     NODE   VOLTAGE     NODE   VOLTAGE


(N31051)  -15.0000 (N40209)     .0178 (N40213)     .0340 (N40217)     .5000     

(N40255)    -.0345 (N40269)    -.0807 (N40273)-176.5E-06 (N40277)    -.0010     

(N40335)  -15.0000 (N40393)     .1993 (N40401)   15.0000 (N40521)   -1.8337     

(N40531)   15.0000 (N40695)   15.0000 (N40791)   15.0000 (N40807)     .0195     

(N40929)   15.0000 (N40979)  -15.0000 (N40987)     .9845 (N41015)    2.0517     

(N41027)-184.7E-06 (N41145)     .5012 (N50782)  -15.0000 (N55149)    1.0000     

(N402970)  -15.0000                   (N405034)  -15.0000                       

(N405510)   15.0000                   (X_U2A.6) 27.53E-06                       

(X_U2A.7)    -.0900                   (X_U2A.8)    -.0900                       

(X_U2A.9)    0.0000                   (X_U2A.a)     .0022                       

(X_U2A.b)  -14.9980                   (X_U3A.6)-220.2E-06                       

(X_U3A.7)    1.1055                   (X_U3A.8)    1.1055                       

(X_U3A.9)    0.0000                   (X_U3A.a)   14.9980                       

(X_U3A.b)    -.0024                   (X_U7A.6)-437.5E-06                       

(X_U7A.7)    2.2451                   (X_U7A.8)    2.2451                       

(X_U7A.9)    0.0000                   (X_U7A.a)   14.9960                       

(X_U7A.b)    -.0039                   (X_intA.6) 30.97E-06                      

(X_intA.7)    -.1357                  (X_intA.8)    -.1357                      

(X_intA.9)    0.0000                  (X_intA.a)     .0011                      

(X_intA.b)  -14.9990                  (X_U2A.10)     .6263                      

(X_U2A.11)  -14.9590                  (X_U2A.12)  -14.9610                      

(X_U2A.13)     .6121                  (X_U2A.14)     .6127                      

(X_U2A.53)   13.5000                  (X_U2A.54)  -14.1780                      

(X_U2A.90)   -2.1559                  (X_U2A.91)   40.0000                      

(X_U2A.92)  -40.0000                  (X_U2A.99)    0.0000                      

(X_U3A.10)    1.1082                  (X_U3A.11)  -14.9610                      

(X_U3A.12)  -14.9600                  (X_U3A.13)    1.0945                      

(X_U3A.14)    1.0941                  (X_U3A.53)   13.5000                      

(X_U3A.54)  -14.1780                  (X_U3A.90)    2.4192                      

(X_U3A.91)   40.0000                  (X_U3A.92)  -40.0000                      

(X_U3A.99)    0.0000                  (X_U7A.10)     .6223                      

(X_U7A.11)  -14.9770                  (X_U7A.12)  -14.9440                      

(X_U7A.13)     .6141                  (X_U7A.14)     .6027                      

(X_U7A.53)   13.5000                  (X_U7A.54)  -14.1780                      

(X_U7A.90)    3.8690                  (X_U7A.91)   40.0000                      

(X_U7A.92)  -40.0000                  (X_U7A.99)    0.0000                      

(X_diffA.6)-4.414E-06                 (X_diffA.7)    -.0011                     

(X_diffA.8)    -.0011                 (X_diffA.9)    0.0000                     

(X_diffA.a)     .0170                 (X_diffA.b)  -14.9830                     

(X_intA.10)     .6076                 (X_intA.11)  -15.0890                     

(X_intA.12)  -15.0900                 (X_intA.13)     .5937                     

(X_intA.14)     .5937                 (X_intA.53)   13.5000                     

(X_intA.54)  -14.1780                 (X_intA.90)   -1.0995                     

(X_intA.91)   40.0000                 (X_intA.92)  -40.0000                     

(X_intA.99)    0.0000                 (X_PropA.6) 386.5E-06                     

(X_PropA.7)   -1.9763                 (X_PropA.8)   -1.9763                     

(X_PropA.9)    0.0000                 (X_PropA.a)     .0029                     

(X_PropA.b)  -14.9970                 (X_diffA.10)     .5880                    

(X_diffA.11)  -14.9440                (X_diffA.12)  -14.9770                    

(X_diffA.13)     .5683                (X_diffA.14)     .5799                    

(X_diffA.53)   13.5000                (X_diffA.54)  -14.1780                    

(X_diffA.90)-644.3E-06                (X_diffA.91)   40.0000                    

(X_diffA.92)  -40.0000                (X_diffA.99)    0.0000                    

(X_PropA.10)     .6076                (X_PropA.11)  -14.9600                    

(X_PropA.12)  -14.9600                (X_PropA.13)     .5937                    

(X_PropA.14)     .5937                (X_PropA.53)   13.5000                    

(X_PropA.54)  -14.1780                (X_PropA.90)   -2.8525                    

(X_PropA.91)   40.0000                (X_PropA.92)  -40.0000                    

(X_PropA.99)    0.0000                


 **** Runtime Parameters
                              
      ABSTOL =      1.0000E-09
        GMIN =      1.0000E-12
        ITL1 =      1.5000E+02
        ITL2 =      2.0000E+01
        ITL4 =      1.0000E+02
      RELTOL =      1.0000E-02
      RUNFOR =      0.0000E+00
        TMAX =      0.0000E+00
       TSTOP =      1.0000E+00
       VNTOL =      1.0000E-03
              
               


          JOB CONCLUDED

          TOTAL JOB TIME           16.03
